LTspice 24.0.12 for Windows
Circuit: * C:\Users\zayin\OneDrive\Desktop\Power Electronics\POE_2025_Powerloss_PMOSFET.asc
Start Time: Sun Mar 16 18:28:33 2025
solver = Normal
Maximum thread count: 18
tnom = 27
temp = 27
method = modified trap
Direct Newton iteration for .op point succeeded.
Total elapsed time: 0.261 seconds.

