LTspice 24.1.1 for Windows
Circuit: C:\Users\zayin\OneDrive - Syddansk Universitet\Desktop\power electronics\Assignment 4\IGBT_switch_w10_2025_littelfuse_ideal_diode.net
Start Time: Sun Mar  9 15:20:05 2025
solver = Normal
Maximum thread count: 12
tnom = 27
temp = 27
method = modified trap
Direct Newton iteration for .op point succeeded.
Total elapsed time: 0.529 seconds.

Files loaded:
C:\Users\zayin\OneDrive - Syddansk Universitet\Desktop\power electronics\Assignment 4\IGBT_switch_w10_2025_littelfuse_ideal_diode.net
C:\Users\zayin\AppData\Local\LTspice\lib\cmp\standard.dio
C:\Users\zayin\AppData\Local\LTspice\lib\cmp\standard.mos
C:\Users\zayin\OneDrive - Syddansk Universitet\Desktop\power electronics\Assignment 4\IXDH20N120.lib

