LTspice 24.0.12 for Windows
Circuit: * C:\Users\zayin\OneDrive\Desktop\Power Electronics\assignment 3\POE_2025_w9_BJT_v1_RB1.asc
Start Time: Mon Feb 24 11:53:42 2025
solver = Normal
Maximum thread count: 18
tnom = 27
temp = 27
method = modified trap
Direct Newton iteration for .op point succeeded.
Total elapsed time: 0.256 seconds.

