LTspice 24.1.1 for Windows
Circuit: C:\Users\zayin\OneDrive - Syddansk Universitet\Desktop\power electronics\Assignment 6 step down\POE2025Week12StepDown_new.net
Start Time: Sat Mar 29 15:28:17 2025
solver = Normal
Maximum thread count: 12
tnom = 27
temp = 27
method = modified trap
Direct Newton iteration for .op point succeeded.
Total elapsed time: 0.109 seconds.

Files loaded:
C:\Users\zayin\OneDrive - Syddansk Universitet\Desktop\power electronics\Assignment 6 step down\POE2025Week12StepDown_new.net
C:\Users\zayin\AppData\Local\LTspice\lib\cmp\standard.dio


Measurement "AVG_VOUT" FAIL'ed
