LTspice 24.0.12 for Windows
Circuit: * C:\Users\zayin\OneDrive\Desktop\Power Electronics\IGBT\IGBT_switch_w10_2025_littelfuse_ideal_diode.asc
Start Time: Mon Mar  3 11:23:42 2025
solver = Normal
Maximum thread count: 18
tnom = 27
temp = 27
method = modified trap
Singular matrix:  Check node wbcj_s:z1
   Iteration No. 4
Direct Newton iteration failed to find .op point.  (Use ".option noopiter" to skip.)
Starting Gmin stepping
Gmin = 10
Gmin = 1.07374
Gmin = 0.115292
Gmin = 0.0123794
Gmin = 0.00132923
Gmin = 0.000142725
Gmin = 1.5325e-05
Gmin = 1.6455e-06
Gmin = 1.76685e-07
vernier = 0.5
vernier = 0.666667
Gmin = 5.3786e-08
vernier = 0.888888
Gmin = 9.12399e-09
vernier = 1
Gmin = 1.00195e-09
Gmin = 1.07583e-10
Gmin = 1.15517e-11
Gmin = 1.24035e-12
Gmin = 1.33182e-13
Gmin = 0
Gmin stepping succeeded in finding the operating point.

Singular matrix:  Check node q_s:z1
   Iteration No. 9
Fatal Error: Singular matrix:  check node q_s:z1
   Iteration No. 9

