LTspice 24.1.1 for Windows
Circuit: C:\Users\zayin\OneDrive - Syddansk Universitet\Desktop\power electronics\Assignment 7 step up self study\POE2025Week12StepUp_new.net
Start Time: Sun Mar 30 18:43:10 2025
solver = Normal
Maximum thread count: 12
tnom = 27
temp = 27
method = modified trap
Direct Newton iteration for .op point succeeded.
Total elapsed time: 0.319 seconds.

Files loaded:
C:\Users\zayin\OneDrive - Syddansk Universitet\Desktop\power electronics\Assignment 7 step up self study\POE2025Week12StepUp_new.net
C:\Users\zayin\AppData\Local\LTspice\lib\cmp\standard.dio

Vout_avg: AVG(V(VOUT))=26.0213366564 FROM 0.0036 TO 0.004
